  24
        -39.56587601
 C         -0.7934816204       -0.9732364619       -0.7613756163
 C          0.6876816155       -1.2019726162       -0.4862032325
 C          1.4254516025        0.1301741484       -0.3568770147
 C          2.8776177984       -0.0937908234       -0.0053540635
 O          3.3027525697       -0.9718736850        0.6955672610
 O          3.6700435151        0.8405294288       -0.5468089796
 H          4.5933483610        0.7000483292       -0.2823846819
 C          0.7935210961        0.9730815531        0.7609546705
 C         -0.6876747563        1.2017340881        0.4857965827
 C         -1.4254089102       -0.1304901939        0.3565661737
 C         -2.8775607879        0.0935541109        0.0050561403
 O         -3.3019323870        0.9681846227       -0.7006256892
 O         -3.6709223177       -0.8363271418        0.5527002767
 H         -4.5942756161       -0.6960632203        0.2883203719
 H         -1.3803396465       -0.6896001845        1.2948654856
 H         -1.1246561372        1.7878948737        1.2963169962
 H         -0.8169498902        1.7647850831       -0.4400042273
 H          1.3080010470        1.9329664373        0.8327555951
 H          0.9159832774        0.4478109242        1.7108807757
 H          1.3804209561        0.6893864227       -1.2951311152
 H          1.1247217721       -1.7881070262       -1.2967007097
 H          0.8169034644       -1.7651196568        0.4395455793
 H         -1.3079690787       -1.9331054795       -0.8333903791
 H         -0.9159982903       -0.4477677596       -1.7111777547
  24
        -39.56519203
 C         -0.7607721216       -0.9726188993       -0.7456889831
 C          0.7264736545       -1.1556379937       -0.4664246848
 C          1.4256506992        0.2057469061       -0.3899747898
 C          2.8989565146        0.0230557594       -0.1091046600
 O          3.7935061170        0.3950659543       -0.8195335765
 O          3.1252571133       -0.6138505343        1.0484441561
 H          4.0792636492       -0.7097731319        1.1952746344
 C          0.7812313569        1.0594392314        0.7079435507
 C         -0.7071974285        1.2412769721        0.4361544101
 C         -1.4100001163       -0.1131941365        0.3494647779
 C         -2.8697954209        0.0603506311        0.0004367782
 O         -3.3244112543        0.9081167311       -0.7184747635
 O         -3.6315416951       -0.8840006978        0.5690603046
 H         -4.5599137411       -0.7765901423        0.3068993679
 H         -1.3461734860       -0.6428831401        1.3038530905
 H         -1.1560881237        1.8385079739        1.2318838148
 H         -0.8567984552        1.7740094960       -0.5043422569
 H          1.2693130127        2.0348850086        0.7495564935
 H          0.9241048127        0.5650990192        1.6707678527
 H          1.3377641438        0.7187879988       -1.3520982994
 H          1.1760668827       -1.7572635435       -1.2588108391
 H          0.8637944888       -1.6800170934        0.4808280248
 H         -1.2508100632       -1.9471844286       -0.7870999870
 H         -0.8977098293       -0.4794634262       -1.7103679063
  24
        -39.56473405
 C         -0.7467990789       -1.2535677403       -0.1584450970
 C          0.7466991111       -1.2549431391        0.1467519530
 C          1.4092164307        0.0018507098       -0.4282286500
 C          2.8885044207        0.0005517409       -0.1198107700
 O          3.7681931407        0.0051466593       -0.9382671100
 O          3.1378202408       -0.0062408359        1.1966031400
 H          4.0946800908       -0.0067323152        1.3557265100
 C          0.7467260004        1.2534540509        0.1580514570
 C         -0.7467411596        1.2548864497       -0.1472910230
 C         -1.4090629192       -0.0019003991        0.4279357600
 C         -2.8884319192       -0.0004512903        0.1200175800
 O         -3.7677703892       -0.0040118786        0.9387701400
 O         -3.1383059293        0.0052719365       -1.1962391500
 H         -4.0952321793        0.0059394358       -1.3549483200
 H         -1.3032798392       -0.0067432565        1.5168746300
 H         -1.2088412299        2.1450106306        0.2840200149
 H         -0.9042760896        1.2773837371       -1.2269882730
 H          1.2088547501        2.1473363501       -0.2653621751
 H          0.9042263404        1.2664096735        1.2379142570
 H          1.3037648107        0.0067831471       -1.5171926200
 H          1.2087614114       -2.1449651700       -0.2847852549
 H          0.9043107311       -1.2776780265        1.2264303930
 H         -1.2088840686       -2.1474830694        0.2649783151
 H         -0.9044070789       -1.2664688729       -1.2382897770
  24
        -39.56446256
 C         -0.4288491053       -1.3848075312        0.2648538345
 C          0.2307882665       -0.9996802213       -1.0563721660
 C          1.1711705544        0.1944105649       -0.8875232444
 C          2.3949895033       -0.1616825314       -0.0709104013
 O          2.6416966132       -1.2285891059        0.4245716298
 O          3.2386938985        0.8763720593        0.0292022677
 H          4.0203366543        0.6247004294        0.5456798581
 C          0.4285412313        1.3839602373       -0.2649347285
 C         -0.2303605347        0.9982457691        1.0564527537
 C         -1.1713926159       -0.1953035261        0.8874752758
 C         -2.3950673239        0.1621563218        0.0712422469
 O         -2.6435030363        1.2313513781       -0.4185315884
 O         -3.2368328017       -0.8767969346       -0.0351389251
 H         -4.0186827743       -0.6234526582       -0.5504859705
 H         -1.5513157566       -0.5051556756        1.8681015013
 H          0.5353418993        0.7345196792        1.7892391068
 H         -0.7908932517        1.8532483178        1.4378988473
 H         -0.3415704459        1.7200800713       -0.9591011436
 H          1.1259309843        2.2069323297       -0.1042316638
 H          1.5507734081        0.5043281183       -1.8681874548
 H         -0.5345961884       -0.7365956145       -1.7897290519
 H          0.7917607173       -1.8547577101       -1.4371232375
 H          0.3407741002       -1.7214292611        0.9593119507
 H         -1.1265819121       -2.2073354154        0.1036068664
  24
        -39.56431508
 C         -0.2707350152       -0.8699260616        1.1001434148
 C          0.4130830478       -1.3929035106       -0.1584235449
 C          1.2140357222       -0.2819104080       -0.8489826921
 C          2.4066194269        0.1266070711       -0.0119208596
 O          2.6616233951        1.2327553047        0.3834874671
 O          3.2140775383       -0.9159948297        0.2383566155
 H          3.9789833905       -0.6290975959        0.7614841142
 C          0.3032789587        0.9025079681       -1.1725198186
 C         -0.4024061082        1.4246105113        0.0751499484
 C         -1.1890711674        0.3228210366        0.8012626687
 C         -2.3926497238       -0.0907321875       -0.0140872544
 O         -2.3922756404       -0.6387506113       -1.0847583785
 O         -3.5337148074        0.2441318711        0.6054526062
 H         -4.3015607984       -0.0115610564        0.0690952294
 H         -1.5756455195        0.7244609561        1.7428948252
 H          0.3425319585        1.8233618702        0.7643976339
 H         -1.0773085187        2.2381040277       -0.1990987036
 H         -0.4374279466        0.5750157638       -1.9028487133
 H          0.8922106421        1.7096997593       -1.6107347503
 H          1.6300369412       -0.6877680748       -1.7782815502
 H         -0.3427966996       -1.7539444127       -0.8558382213
 H          1.0748531833       -2.2215337717        0.0967908230
 H          0.4836105573       -0.5396202165        1.8183864302
 H         -0.8482227202       -1.6723591629        1.5645668208
  24
        -39.56419376
 C         -0.3417146582       -1.3473489243        0.6819768682
 C          0.3402152576       -1.3446731547       -0.6844868689
 C          1.1677270837       -0.0790564562       -0.9092538747
 C          2.3972525254       -0.0414716703       -0.0261680816
 O          2.7260014996       -0.8673751435        0.7817287488
 O          3.1417714282        1.0500967150       -0.2650702550
 H          3.9317394341        1.0462756740        0.2979761915
 C          0.3099652597        1.1743113721       -0.6921121850
 C         -0.3104801680        1.1708424199        0.7012969267
 C         -1.1695992592       -0.0827535584        0.9107945274
 C         -2.3970733688       -0.0412935249        0.0249656895
 O         -2.7279226150       -0.8678605969       -0.7814137304
 O         -3.1369977794        1.0544328881        0.2590130314
 H         -3.9255928479        1.0525934220       -0.3059732430
 H         -1.5477305656       -0.0734623772        1.9398652583
 H          0.4802938480        1.1784911568        1.4543454268
 H         -0.9224427347        2.0633101629        0.8396896024
 H         -0.4809721392        1.1872616902       -1.4449226316
 H          0.9230082351        2.0667892167       -0.8257486723
 H          1.5433035674       -0.0649731505       -1.9391801044
 H         -0.4192061999       -1.4115408022       -1.4636836122
 H          0.9876994722       -2.2194888479       -0.7585867091
 H          0.4176458897       -1.4165965672        1.4610165819
 H         -0.9888473656       -2.2226811939        0.7527807153
  24
        -39.56399157
 C         -0.7522616246       -1.2130283666       -0.3251307454
 C          0.7380600003       -1.2685260644       -0.0040014035
 C          1.4002206269        0.0618386674       -0.3522705829
 C          2.8899623953        0.0878059669       -0.0847269886
 O          3.5758321655        1.0724909374       -0.1627127741
 O          3.3957877588       -1.1053317726        0.2480394375
 H          4.3512497534       -1.0309474511        0.4023069198
 C          0.7298485984        1.2099802724        0.4118128183
 C         -0.7581666290        1.2639884014        0.0890616912
 C         -1.4255098745       -0.0702746271        0.4436096907
 C         -2.8996786341       -0.0184221728        0.1171919625
 O         -3.7919690056       -0.1463733606        0.9116638673
 O         -3.1295517108        0.1916792814       -1.1862856822
 H         -4.0840685660        0.2207891199       -1.3563222760
 H         -1.3370436226       -0.2496421946        1.5192708425
 H         -1.2284509150        2.0719928566        0.6525897690
 H         -0.9008104633        1.4615044264       -0.9747442389
 H          1.2107466419        2.1512791811        0.1433945747
 H          0.8671464291        1.0552214522        1.4842932396
 H          1.2821807585        0.2533460348       -1.4261991093
 H          1.2055874746       -2.0775066079       -0.5663129157
 H          0.8788805187       -1.4762116901        1.0581048605
 H         -1.2219337163       -2.1616779534       -0.0582279770
 H         -0.8949028814       -1.0519261202       -1.3952679578
  24
        -39.56166293
 C         -0.3262615331       -1.0660275508        1.0515417924
 C          0.3895051867       -1.4269151332       -0.2470017662
 C          1.1776820150       -0.2597428048       -0.8563916012
 C          2.4710714424        0.0291136243       -0.1259300849
 O          3.5507728717        0.0328122748       -0.6576771750
 O          2.3386383961        0.2929474114        1.1808260176
 H          3.2115953132        0.4619747035        1.5705640812
 C          0.2942924635        0.9928096394       -0.9615341573
 C         -0.3777719722        1.3496407155        0.3594219577
 C         -1.2069299640        0.1721909532        0.8856981789
 C         -2.3986634129       -0.0965965168       -0.0087080884
 O         -2.6860549832       -1.1447454482       -0.5210416715
 O         -3.1630843855        0.9965021853       -0.1561671733
 H         -3.9292717311        0.7962586638       -0.7164902454
 H         -1.6272914056        0.4548305875        1.8580682209
 H          0.3781355144        1.5974023148        1.1045711862
 H         -1.0211956763        2.2193402776        0.2194496052
 H         -0.4729964214        0.7943439123       -1.7133827251
 H          0.8947959264        1.8351665345       -1.3118549486
 H          1.4887853545       -0.5433903148       -1.8679195253
 H         -0.3565658799       -1.7429799507       -0.9770075309
 H          1.0620572952       -2.2687846016       -0.0711797450
 H          0.4025842410       -0.8681917068        1.8371657711
 H         -0.9430931827       -1.9129429254        1.3564817462
  24
        -39.56132752
 C         -0.4261558594       -1.2141274652       -0.7893658231
 C          0.3225886311       -0.0746315891       -1.4730075591
 C          1.2229631606        0.6966487663       -0.5042224330
 C          2.3978917403       -0.1152269811       -0.0088775377
 O          2.4201873300       -1.2891808596        0.2480939990
 O          3.4803716103        0.6619255497        0.1485915285
 H          4.2241829000        0.1428232716        0.4941652019
 C          0.4002548000        1.1865926732        0.6986996237
 C         -0.3169123406        0.0353409672        1.3936717699
 C         -1.2214905201       -0.7616330881        0.4428000739
 C         -2.4856574198       -0.0136259000        0.0815738989
 O         -3.5900367300       -0.3853353981        0.3831933803
 O         -2.3006658792        1.1170982861       -0.6145104575
 H         -3.1600621091        1.5258891851       -0.8066732703
 H         -1.5702890605       -1.6546831650        0.9725809887
 H          0.4218795591       -0.6595690706        1.7969310742
 H         -0.9080358010        0.4201322221        2.2274988373
 H         -0.3287739897        1.9099601112        0.3333426892
 H          1.0550697696        1.6938385172        1.4105748612
 H          1.6440812710        1.5698991133       -1.0118599177
 H         -0.3891298985        0.6322625585       -1.9010195536
 H          0.9250786615       -0.4846525438       -2.2862091465
 H          0.2976533403       -1.9583009834       -0.4570856884
 H         -1.0987565291       -1.6902729492       -1.5057654108
  24
        -39.56033375
 C          0.4078443806        0.8749526791        0.6445426324
 C         -0.4064362193        0.8757492510       -0.6411650077
 C         -1.3827512300       -0.3200965385       -0.6376296590
 C         -2.6351921598        0.1231139115        0.0839444714
 O         -2.8082164699        0.0963732203        1.2735038814
 O         -3.5528054095        0.6071501029       -0.7622486481
 H         -4.3322830193        0.9218461529       -0.2768881278
 C         -0.7587175008       -1.5315036696        0.0690418297
 C          0.7585856992       -1.5324659103       -0.0659312402
 C          1.3841531399       -0.3209023514        0.6391409811
 C          2.6349103202        0.1222265286       -0.0853500384
 O          2.8060036602        0.0935409898       -1.2751814684
 O          3.5529820605        0.6099252072        0.7583402322
 H          4.3308842007        0.9253032972        0.2709551025
 H          1.6614474197       -0.5564204327        1.6687995309
 H          1.1650244787       -2.4527481110        0.3555608688
 H          1.0298582493       -1.5028690993       -1.1231269202
 H         -1.1662286913       -2.4518065689       -0.3513789612
 H         -1.0301128408       -1.5003380105        1.1261495098
 H         -1.6576213901       -0.5559925572       -1.6678583192
 H          0.2667107206        0.7943557615       -1.4952472977
 H         -0.9636645988        1.8087761614       -0.7433029167
 H         -0.2653022995        0.7925166786        1.4985178822
 H          0.9650518312        1.8078591687        0.7479124434
  24
        -39.55965415
 C          0.6716744436        1.4173876146        0.5281034249
 C         -0.8364464553        1.2297869591        0.6279674145
 C         -1.3359011416        0.3367395614       -0.5259843275
 C         -2.6655026553       -0.2447476822       -0.1028632862
 O         -2.8548301662       -1.3571009565        0.3094368957
 O         -3.6512641142        0.6577186726       -0.2082318257
 H         -4.4914322295        0.2801614459        0.0971593024
 C         -0.3199332962       -0.7642205922       -0.8603358140
 C          0.5262045408       -1.1092403349        0.3577572179
 C          1.4128309431        0.0916926360        0.7498990732
 C          2.6582098285        0.0314440519       -0.1056032391
 O          2.7922925850        0.5291428828       -1.1915482280
 O          3.6227986239       -0.6945467323        0.4735613780
 H          4.3973725705       -0.7573921298       -0.1078861949
 H          1.7224001582       -0.0253181253        1.7910777615
 H         -0.1290627246       -1.3714938127        1.1882300881
 H          1.1541932432       -1.9768879494        0.1487341084
 H          0.3333914709       -0.4292054342       -1.6666047774
 H         -0.8532895094       -1.6542902091       -1.1969476644
 H         -1.5154812761        0.9625019881       -1.4037227694
 H         -1.3422356420        2.1945879326        0.5834889305
 H         -1.0807254561        0.7706886062        1.5884281886
 H          1.0029809379        2.1536110062        1.2617254885
 H          0.9220765246        1.7967567294       -0.4645590350
  24
        -39.55949419
 C          0.2538638576        1.2539681569        0.3362904588
 C         -0.8930240798        1.4662344945       -0.6530946142
 C         -1.6519816986        0.1553995926       -0.9031376605
 C         -2.2481112457       -0.3200413606        0.4068423794
 O         -1.9431945283       -1.3119965285        1.0121607189
 O         -3.2027382674        0.5142800489        0.8398182207
 H         -3.5674718681        0.2015796405        1.6826566703
 C         -0.7339229665       -0.9070364205       -1.5254263089
 C          0.7462464352       -0.5826143619       -1.3210442749
 C          0.9684061028       -0.0859675017        0.1140246772
 C          2.4548192242        0.0419022364        0.3546951352
 O          3.0931340602        1.0599080620        0.3220127117
 O          3.0207162902       -1.1489144101        0.5888501828
 H          3.9780214642       -1.0509464497        0.7133964739
 H          0.5861497693       -0.8553110296        0.7901204476
 H          1.3413848105       -1.4792323475       -1.4984819370
 H          1.0767448748        0.1856228501       -2.0221695548
 H         -0.9375618378       -0.9983313973       -2.5928194941
 H         -0.9530729121       -1.8672777849       -1.0549127445
 H         -2.4995458499        0.3662607734       -1.5624225014
 H         -0.5091656606        1.8267354372       -1.6078316705
 H         -1.5800752104        2.2187424212       -0.2649028117
 H         -0.1284892905        1.2895642395        1.3579934957
 H          0.9810498370        2.0612491544        0.2269400588
  24
        -39.55887272
 C          0.3669727323        0.6500671414       -1.2601242435
 C         -0.3688619582       -0.6842591485       -1.2398108467
 C         -1.2217010798       -0.8773288998        0.0223527205
 C         -2.4819257194       -0.0404070391       -0.0048675433
 O         -3.5900683495       -0.5079031683       -0.0517452989
 O         -2.2865917190        1.2845424505        0.0230195692
 H         -3.1424383788        1.7423738711        0.0008099224
 C         -0.3724192312       -0.6427959017        1.2787685237
 C          0.3760416193        0.6850310882        1.2576061968
 C          1.2237113409        0.8791423796       -0.0068828004
 C          2.4817631406        0.0383185391       -0.0079506067
 O          3.5915177308        0.5016344392       -0.0572474711
 O          2.2824021801       -1.2851322013        0.0476641609
 H          3.1368161299       -1.7461247916        0.0412574377
 H          1.5835542513        1.9137274296       -0.0234166805
 H         -0.3407075904        1.5055239681        1.2980033235
 H          1.0151425983        0.7532398699        2.1406325682
 H          0.3446321485       -1.4614438026        1.3442532270
 H         -1.0103862722       -0.6832580996        2.1642872226
 H         -1.5788053901       -1.9128747598        0.0376735606
 H          0.3549475016       -1.4989684785       -1.2725470233
 H         -1.0033655172       -0.7622836701       -2.1253425282
 H         -0.3569409773        1.4636675622       -1.3135843969
 H          0.9983763334        0.7027203394       -2.1497557323
  24
        -39.55881583
 C         -0.7103388434       -1.1610797170        0.7946157331
 C          0.2748410844       -1.1018548035       -0.3678751647
 C          1.1520890564        0.1600626668       -0.3289583847
 C          2.6223651520       -0.1871983086       -0.2509289778
 O          3.0854256686       -1.2503344855        0.0637927585
 O          3.3926032583        0.8651183318       -0.5584106172
 H          4.3311094892        0.6319122053       -0.4791595597
 C          0.8113684342        1.0557999738        0.8720450553
 C         -0.6777098860        1.3831281706        0.8661250796
 C         -1.5556958056        0.1217700479        0.8733147860
 C         -2.5204016557        0.1238991527       -0.2951360940
 O         -2.4491449749        0.8116691085       -1.2775662575
 O         -3.5024585792       -0.7703542890       -0.1192441798
 H         -4.0983863591       -0.7732708641       -0.8848605582
 H         -2.1663204715        0.0675372327        1.7789835581
 H         -0.9133007196        2.0099980157        1.7267868354
 H         -0.9048117179        1.9532855286       -0.0375238614
 H          1.3877193583        1.9795165245        0.8048205349
 H          1.0894573069        0.5547348499        1.8007515831
 H          1.0070580887        0.7556856464       -1.2341606385
 H         -0.2759635152       -1.1298107716       -1.3088792600
 H          0.9208870253       -1.9813693639       -0.3281027952
 H         -0.1712421338       -1.2897516966        1.7331908974
 H         -1.3710661999       -2.0209030472        0.6741084812
  24
        -39.55860312
 C         -0.3942087598       -0.4436426206        1.0079421007
 C          0.4285470903       -1.1032347619       -0.0893742684
 C          1.3857696406       -0.0686693428       -0.7187839093
 C          2.6324868105       -0.0271400321        0.1360002509
 O          2.7913790004        0.6495405789        1.1164888502
 O          3.5634616004       -0.8844107828       -0.3017634580
 H          4.3395705803       -0.8714554923        0.2810038022
 C          0.7290966409        1.3177070773       -0.7787141009
 C         -0.7871108791        1.2055970175       -0.8789722511
 C         -1.3671440895        0.5932295990        0.4048444794
 C         -2.6961848696       -0.0817735010        0.1549852099
 O         -3.6788480497        0.0621295999        0.8319090695
 O         -2.6782781295       -0.9156214422       -0.8963762492
 H         -3.5424773896       -1.3458307221       -0.9912295789
 H         -1.5503760595        1.3751748398        1.1463800185
 H         -1.2221523788        2.1930781274       -1.0387357623
 H         -1.0461360490        0.5837885266       -1.7364404105
 H          1.1173761112        1.8720035763       -1.6341630415
 H          0.9925046909        1.8710633382        0.1247640385
 H          1.6774510708       -0.4164571639       -1.7123663289
 H         -0.2369641696       -1.4983199526       -0.8569220081
 H          1.0025511600       -1.9387727416        0.3155267626
 H          0.2784147302        0.0572416801        1.7049406003
 H         -0.9542160101       -1.1939996898        1.5691552114
  24
        -39.55846204
 C         -0.4360354697       -1.0604308881        0.6264807899
 C          0.4354457457       -1.0612383721       -0.6234835107
 C          1.3734248072        0.1532217078       -0.6508913944
 C          2.6977553205       -0.1514417960        0.0116140825
 O          2.9008380780       -0.9971839167        0.8394752293
 O          3.6599513684        0.6808070831       -0.4133099902
 H          4.4955979080        0.4950961894        0.0438586442
 C          0.7558453652        1.3559444803        0.0923061676
 C         -0.7559069757        1.3563718611       -0.0908445250
 C         -1.3743420894        0.1538160655        0.6519655776
 C         -2.6974230670       -0.1513398251       -0.0128057835
 O         -2.8984937271       -0.9964840515       -0.8418529135
 O         -3.6611361748        0.6792216402        0.4119028839
 H         -4.4959938477        0.4930988844       -0.0465635892
 H         -1.5864235904        0.4439036811        1.6843609726
 H         -1.1873132460        2.2819367704        0.2915651358
 H         -0.9854220063        1.2949822224       -1.1566787542
 H          1.1877146304        2.2813393042       -0.2899773818
 H          0.9854454996        1.2942234765        1.1580952737
 H          1.5837352138        0.4430258626       -1.6837333560
 H         -0.2076525635       -1.0563628789       -1.5033135440
 H          1.0313691439       -1.9744050880       -0.6448104446
 H          0.2069650007       -1.0540885363        1.5063853276
 H         -1.0316951831       -1.9737400678        0.6491555725
  24
        -39.55830601
 C         -0.8030249291       -1.6326880496       -0.8105878619
 C          0.6938072309       -1.4372742290       -0.5663815924
 C          0.9589904403        0.0110831707       -0.1663249707
 C          2.4371404101        0.3055417115       -0.0889177210
 O          3.3076751807       -0.4961330683        0.1189490576
 O          2.6897084393        1.6122507118       -0.2475150195
 H          3.6410767992        1.7868018423       -0.1677008697
 C          0.3416456807        0.3029594586        1.2194653000
 C         -0.8526108886       -0.6115089825        1.5058629194
 C         -1.6574876290       -0.8954848614        0.2313963794
 C         -2.2112492601        0.4064909690       -0.3139027287
 O         -1.9667514308        0.8942271205       -1.3839886682
 O         -3.0567029900        0.9799670474        0.5534739224
 H         -3.4017098807        1.8097930676        0.1880320536
 H         -2.5306256385       -1.4971135323        0.5039158591
 H         -0.5069823678       -1.5650250928        1.9061516780
 H         -1.4978493185       -0.1486261038        2.2532250203
 H          0.0357363301        1.3494028283        1.2575316214
 H          1.0935396112        0.1503226680        1.9972575894
 H          0.5185691495        0.6791133414       -0.9105679196
 H          1.2491723107       -1.6795627275       -1.4729564729
 H          1.0557624117       -2.0978009297        0.2220939666
 H         -1.0366089584       -2.6975219897       -0.7980681132
 H         -1.0576187098       -1.2426411485       -1.7977630313
  24
        -39.55787222
 C          0.5066975471        1.1067031729        0.3864886457
 C         -0.3426911279        0.8175171743       -0.8438231611
 C         -1.3462429046       -0.3093156329       -0.5639889097
 C         -2.6639047218        0.2334556677       -0.0589751226
 O         -2.8458559411        1.3156145008        0.4290184294
 O         -3.6470387237       -0.6687368539       -0.1900186265
 H         -4.4784174381       -0.3189886821        0.1680233974
 C         -0.8094237814       -1.2865169415        0.5022478150
 C          0.7015764856       -1.4235729607        0.3645759426
 C          1.3925575053       -0.1061137862        0.7466626661
 C          2.7271823135        0.0563851445        0.0561310636
 O          3.7387454910        0.4177521833        0.5957363746
 O          2.6810101563       -0.2028782262       -1.2590728180
 H          3.5514093097       -0.0456095838       -1.6573301933
 H          1.5964796076       -0.0831022044        1.8207655868
 H          1.0643330703       -2.2262600589        1.0082276797
 H          0.9428661036       -1.6831403440       -0.6663706681
 H         -1.2942913602       -2.2556286622        0.3828877274
 H         -1.0462973046       -0.9166878140        1.5020727804
 H         -1.5526384909       -0.8655781097       -1.4821184886
 H          0.3061122881        0.5357931285       -1.6731622514
 H         -0.8872941866        1.7197711193       -1.1254836707
 H         -0.1517379471        1.3398884174        1.2229975536
 H          1.1352500772        1.9818181877        0.2125790097
  24
        -39.55753356
 C          0.8354393041       -1.7588673957       -0.1017101654
 C         -0.3868854734       -1.2264853905        0.6537130997
 C         -0.9059835263        0.0819559544        0.0460340321
 C         -2.3933676437        0.2288508839        0.2668661391
 O         -3.1933951289       -0.6664580841        0.3001928864
 O         -2.7511613325        1.5145353558        0.3880963237
 H         -3.7124784328        1.5905221609        0.4981821833
 C         -0.6423976026        0.0956682546       -1.4654978065
 C          0.8634975616        0.1637135421       -1.7361198664
 C          1.6661892828       -0.6102717585       -0.6757770074
 C          2.1845848171        0.2729715143        0.4421291238
 O          2.2406255846       -0.0319310520        1.6030196993
 O          2.6508283735        1.4512934928       -0.0004932845
 H          3.0096935140        1.9645166761        0.7403836099
 H          2.5708623957       -1.0142117523       -1.1464311809
 H          1.0654605900       -0.2556634235       -2.7225507039
 H          1.1933681551        1.2022624671       -1.7457081680
 H         -1.1355219583        0.9529699103       -1.9266986575
 H         -1.0713976496       -0.8099154651       -1.8970574992
 H         -0.4163526768        0.9515440568        0.4928009410
 H         -0.1241062906       -1.0546785007        1.6973477589
 H         -1.1880436544       -1.9669058664        0.6240232959
 H          0.5261069942       -2.4021056107       -0.9260019939
 H          1.4479568949       -2.3509381685        0.5779549722
  24
        -39.55742282
 C          0.7373273308        0.5958890608        1.3256233474
 C         -0.7510533390        0.6120771502        1.6760552084
 C         -1.6332824699        0.8197795184        0.4364752888
 C         -2.2597915593       -0.4811909825       -0.0282083595
 O         -2.0793209783       -1.5688475919        0.4475999115
 O         -3.0928300502       -0.2837566141       -1.0594243792
 H         -3.4856633798       -1.1256595946       -1.3387997281
 C         -0.8335106711        1.4426311677       -0.7141381124
 C          0.3107383292        0.5262079481       -1.1556126122
 C          0.9495195405       -0.2081549403        0.0375541381
 C          2.4283331105       -0.4288303295       -0.1719017626
 O          2.9928724913       -1.4859451091       -0.0882563220
 O          3.0887356896        0.7085713106       -0.4409654142
 H          4.0356214296        0.5253474312       -0.5425131447
 H          0.4916419213       -1.1920683905        0.1700075594
 H         -0.0592010107       -0.2132666229       -1.8679953912
 H          1.0651061385        1.1291053281       -1.6629178733
 H         -0.4380552715        2.4001055984       -0.3735675436
 H         -1.4952376418        1.6358684065       -1.5588174721
 H         -2.4721384402        1.4828490880        0.6720969887
 H         -0.9401971490        1.3990633008        2.4067764478
 H         -1.0201479280       -0.3434924195        2.1297189695
 H          1.2967302917        0.1409211520        2.1445952175
 H          1.1180157801        1.6079024609        1.1810991562
  24
        -39.55706211
 C         -0.4148481906       -1.0216507418        0.4593513912
 C          0.4136462500       -0.7878246534       -0.7954779990
 C          1.3701232204        0.4089610684       -0.6001154673
 C          2.6951643800       -0.1129544325       -0.0928397740
 O          3.6852059802       -0.2361560579       -0.7633581570
 O          2.6634374094       -0.4787755138        1.1969209050
 H          3.5254680691       -0.8364908170        1.4613272827
 C          0.7584686205        1.4490893742        0.3506497077
 C         -0.7577326494        1.4784349519        0.1985183208
 C         -1.3709756802        0.1654606924        0.7082936343
 C         -2.6950590600       -0.1381922804        0.0448762695
 O         -3.6840046304       -0.5013866549        0.6237390676
 O         -2.6636056395       -0.0069283188       -1.2893109289
 H         -3.5248904995       -0.2457907899       -1.6662844776
 H         -1.5718497405        0.2332237343        1.7809581996
 H         -1.1732812492        2.3159436036        0.7604971197
 H         -1.0094189690        1.6222949649       -0.8524338104
 H          1.1751085910        2.4327365663        0.1298110953
 H          1.0102426900        1.2024449470        1.3823159011
 H          1.5694577510        0.8599930574       -1.5760118547
 H         -0.2527670896       -0.5826268941       -1.6332216436
 H          0.9883457497       -1.6826852468       -1.0417121754
 H          0.2515846791       -1.1324050573        1.3146910854
 H         -0.9899432709       -1.9448794916        0.3666212605
  24
        -39.55696939
 C         -0.7155119781       -0.2636350343       -1.4152366680
 C          0.7723279162       -0.4872026088       -1.6952260334
 C          1.6675776036        0.4129236441       -0.8305286712
 C          2.3099875653       -0.2716197868        0.3604666521
 O          3.1013650216        0.2696722569        1.0869543114
 O          1.9359164883       -1.5428734680        0.5541254357
 H          2.3924554566       -1.9047390076        1.3300862801
 C          0.8826906876        1.6246463010       -0.3063901194
 C         -0.2658985545        1.1801090286        0.6010442266
 C         -0.9454571861       -0.0992484344        0.0931881028
 C         -2.4357231774       -0.0608971292        0.3413314159
 O         -3.1130148896        0.9269953360        0.4337300276
 O         -2.9541460780       -1.2942506664        0.4173166382
 H         -3.9155997261       -1.2507608657        0.5415550055
 H         -0.5497464935       -0.9888020640        0.5891480770
 H          0.1103574623        1.0115447288        1.6115134910
 H         -1.0127596552        1.9748424152        0.6535388120
 H          0.5012138646        2.1852730136       -1.1597916601
 H          1.5563841064        2.2758164847        0.2511079670
 H          2.5076016974        0.7861121008       -1.4266359761
 H          0.9648627716       -0.2841951578       -2.7497234885
 H          1.0205855000       -1.5313335513       -1.5078176537
 H         -1.2866083911       -1.1155265164       -1.7872238671
 H         -1.0747680693        0.6306589745       -1.9266175237
  24
        -39.55645268
 C          0.6458993559        1.1246646256        1.0502641832
 C         -0.3802396056        1.2266971575       -0.0754732868
 C         -1.1210162160       -0.0964509600       -0.3250223270
 C         -2.6217750118        0.0874158770       -0.2721742291
 O         -3.2095322258        0.9783687861        0.2781232038
 O         -3.2599565269       -0.9075892591       -0.9049252451
 H         -4.2207743534       -0.7902695543       -0.8367647942
 C         -0.7435489379       -1.1571087068        0.7194983802
 C          0.7622390352       -1.3995907969        0.6950087251
 C          1.5609701666       -0.0889134258        0.8729515753
 C          2.5249055531        0.1390732104       -0.2738396970
 O          2.6906941274        1.1721465184       -0.8636378812
 O          3.2380977328       -0.9615320635       -0.5583442507
 H          3.8644791328       -0.7767080437       -1.2758236736
 H          2.2003182120       -0.1773798911        1.7590594590
 H          1.0235007744       -2.1064234709        1.4828910340
 H          1.0265896895       -1.8640431739       -0.2559366915
 H         -1.2624020126       -2.0902479050        0.4931978551
 H         -1.0623634889       -0.8267852722        1.7087981908
 H         -0.8802691335       -0.5009648469       -1.3122789249
 H          0.1286909610        1.5402073176       -0.9865511934
 H         -1.1102126504        1.9957126630        0.1841159516
 H          0.1431460099        1.0578573278        2.0148923372
 H          1.2552716691        2.0291011009        1.0510442295
  24
        -39.55638991
 C         -0.6397756064       -0.7942354967        1.2392698534
 C          0.8652536969       -0.9562080440        1.4724064970
 C          1.6499712214       -0.9137518125        0.1499358425
 C          2.1912757921        0.4627415114       -0.1857859637
 O          2.2636497143        0.9277539533       -1.2915144146
 O          2.6570273094        1.1171981419        0.8882319634
 H          3.0247125911        1.9741393576        0.6205900418
 C          0.7921877169       -1.4355331535       -1.0034125572
 C         -0.4191605834       -0.5265638872       -1.2457967810
 C         -0.8851966213        0.1469030098        0.0545541666
 C         -2.3490419242        0.5132663255        0.0026859157
 O         -2.7988482058        1.6009890865        0.2453604238
 O         -3.1339089786       -0.5261201926       -0.3147377898
 H         -4.0641161159       -0.2515289944       -0.3166637561
 H         -0.3332837679        1.0765623528        0.2220512510
 H         -0.1580620651        0.2458798577       -1.9690461045
 H         -1.2340243468       -1.1206287069       -1.6603794496
 H          0.4665537719       -2.4464633180       -0.7562440370
 H          1.3911746710       -1.4851401843       -1.9125371111
 H          2.5436010007       -1.5416939186        0.2511419876
 H          1.0474363357       -1.9084443111        1.9723579187
 H          1.2281509577       -0.1648904251        2.1276594236
 H         -1.1088456734       -0.3962549501        2.1407477558
 H         -1.1034755822       -1.7562645805        1.0172675831
