  18
        -36.44319988
 C         -1.1929577210       -1.5849668005        0.1351634103
 C          0.0046706990       -2.2673451906        0.2358726200
 C          1.2060149590       -1.5791308807        0.1830424299
 C          1.2081967291       -0.1954460607        0.0274628601
 C         -0.0005702108        0.4919672094       -0.0456249297
 C         -1.2045018609       -0.1962953405        0.0088080904
 C         -2.5379524908        0.4807664896       -0.0858635493
 O         -3.5301297409       -0.1048869703       -0.4196723692
 O         -2.5761481307        1.7809797696        0.2339472408
 H         -1.7211193206        2.1282895795        0.5231440407
 H          0.0536528393        1.5647114194       -0.1767315196
 C          2.4561479292        0.6276353692       -0.0298280000
 O          2.4620225593        1.7972059591        0.2396671401
 O          3.5789148091       -0.0002796809       -0.4079466903
 H          3.4317772290       -0.9244847008       -0.6492501103
 H          2.1305500390       -2.1307433008        0.2926947197
 H          0.0063751189       -3.3397936007        0.3558758499
 H         -2.1376651910       -2.1059841605        0.1610116504
  18
        -36.44281794
 C         -1.2031168112       -1.5954312299       -0.0544426399
 C          0.0029560089       -2.2774016398       -0.0536649807
 C          1.1955544588       -1.5810527297       -0.0177252508
 C          1.2019779787       -0.1857486497        0.0042951299
 C         -0.0075766213        0.4945254102       -0.0087877192
 C         -1.2132234213       -0.2034186299       -0.0260841791
 C         -2.4608957114        0.6233377600       -0.0371000582
 O         -2.4492368616        1.7908531002       -0.3164756375
 O         -3.6038887512        0.0081518797        0.2968124620
 H         -3.4784394110       -0.9167013304        0.5469201614
 H         -0.0818292714        1.5742549702       -0.0199774186
 C          2.5424738687        0.4865615704        0.0286234498
 O          3.5647325787       -0.1325003395       -0.0830076810
 O          2.5611658886        1.8148497103        0.1893141705
 H          1.6810848386        2.2066010402        0.2702601711
 H          2.1444174889       -2.0953232896       -0.0140843215
 H          0.0085442990       -3.3561192298       -0.0839002213
 H         -2.1219361512       -2.1645905499       -0.1096681298
  18
        -36.44104184
 C         -1.1976203337       -1.5952318455       -0.0161799201
 C          0.0001813332       -2.2871990778        0.0002685583
 C          1.1978181192       -1.5949602267        0.0165543692
 C          1.2038759344       -0.2023899631       -0.0124394774
 C         -0.0001120177        0.4945034546        0.0002090874
 C         -1.2039395299       -0.2026715201        0.0127442235
 C         -2.5266938521        0.4962125492        0.0125679374
 O         -3.4968578024        0.0467430449       -0.5273645231
 O         -2.5750746134        1.6735768569        0.6610361330
 H         -1.7549153055        1.8823303531        1.1275508486
 H         -0.0003301587        1.5791675000        0.0002307678
 C          2.5266305033        0.4965041598       -0.0128553848
 O          3.4973868028        0.0460872379        0.5252633967
 O          2.5744943131        1.6746562249       -0.6598095151
 H          1.7537554416        1.8843428748       -1.1248863025
 H          2.1443822780       -2.1126865019        0.0379396184
 H          0.0003044365       -3.3660204879        0.0003130528
 H         -2.1440525816       -2.1132018051       -0.0376264790
  18
        -36.44027120
 C          1.2001150515       -1.5706506876       -0.0374820885
 C          0.0000421807       -2.2593257581        0.0008502210
 C         -1.2000097677       -1.5705597012        0.0385388661
 C         -1.2049676334       -0.1772570728        0.0336042173
 C          0.0000904114        0.5136762367       -0.0000000888
 C          1.2051839537       -0.1773473910       -0.0334117907
 C          2.4731668931        0.6162716703       -0.1034782415
 O          2.5423891553        1.6818004715       -0.6447093670
 O          3.5491176142        0.0613596585        0.4816665030
 H          3.3451240129       -0.7687095046        0.9324431688
 H          0.0002521992        1.5929622011       -0.0002125793
 C         -2.4733315681        0.6157767650        0.1033514787
 O         -2.5442737284        1.6795611644        0.6477336495
 O         -3.5476459448        0.0620536900       -0.4858896761
 H         -3.3422101186       -0.7664057584       -0.9389905500
 H         -2.1249965329       -2.1281772048        0.1021495411
 H          0.0000040743       -3.3387657310        0.0011697612
 H          2.1249306146       -2.1285704824       -0.1010350346
  18
        -36.43960704
 C         -1.2009860421       -1.5641286309        0.1949785710
 C          0.0000057556       -2.2459609412        0.2880769070
 C          1.2009978063       -1.5641079466        0.1951255385
 C          1.2068275671       -0.1795416897        0.0380004496
 C          0.0000090522        0.5080612497       -0.0146468890
 C         -1.2068039820       -0.1795543660        0.0379578785
 C         -2.4719898533        0.6189846155       -0.0389251140
 O         -2.5379471677        1.7651401377        0.2996662437
 O         -3.5495962269       -0.0223358135       -0.5254967902
 H         -3.3546242198       -0.9241429840       -0.8121960449
 H          0.0000138263        1.5839173088       -0.1034237946
 C          2.4719661690        0.6190600412       -0.0390410954
 O          2.5377544259        1.7654112498        0.2989111903
 O          3.5497503544       -0.0224482426       -0.5249729765
 H          3.3549039665       -0.9244548825       -0.8111065041
 H          2.1249183309       -2.1191515163        0.2907920927
 H          0.0000028268       -3.3153231977        0.4353106753
 H         -2.1249172397       -2.1191548395        0.2906468372
  18
        -36.43960444
 C         -1.1967320932       -1.5738162020       -0.1877297591
 C         -0.0000177099       -2.2611515279       -0.2752173106
 C          1.1967226933       -1.5738610977       -0.1876502231
 C          1.2049001714       -0.1895098300       -0.0261757445
 C          0.0000163444        0.5030334123        0.0543434088
 C         -1.2048905006       -0.1894717541       -0.0261829326
 C         -2.5376588901        0.4793094169        0.0990385150
 O         -3.5137998774       -0.0966466321        0.4868429908
 O         -2.6001456849        1.7747107000       -0.2594966637
 H         -1.7694638192        2.1104301673       -0.6189247032
 H          0.0000460356        1.5689567582        0.2574095474
 C          2.5377173117        0.4792400209        0.0987857866
 O          3.5137266946       -0.0965384665        0.4872805774
 O          2.6001765189        1.7745952355       -0.2599234598
 H          1.7694208921        2.1103930412       -0.6189227418
 H          2.1442227753       -2.0884980627       -0.2331175605
 H         -0.0000236475       -3.3327965022       -0.3992605900
 H         -2.1442131492       -2.0884977814       -0.2331652069
