  11
        -22.81928783
 C          1.1366262807        0.1566185912       -0.0000199884
 O          2.2230303008        0.6359203312        0.0002598829
 O          0.0000057608        0.9152280312       -0.0004548888
 C         -1.1366272693        0.1566402813       -0.0000495603
 O         -2.2230390492        0.6358996813        0.0002886192
 C         -0.7594057093       -1.3132998087       -0.0000436710
 C          0.7594032207       -1.3133563488        0.0000008003
 H          1.1960720114       -1.7873912982       -0.8793118097
 H          1.1959295100       -1.7869069994        0.8794284803
 H         -1.1958894486       -1.7871450381       -0.8795569917
 H         -1.1960232100       -1.7873230893        0.8792939883
