  19
        -24.95344153
 C         -0.6390780101       -0.0118169281        0.0088743299
 C         -0.6753708577       -0.0023113589        1.5398028599
 H         -0.9973226982       -0.9677382487        1.9270989899
 H          0.3053947632        0.2418255597        1.9440009885
 H         -1.3720166762        0.7563003517        1.8877943714
 C         -2.0608442110       -0.0700791162       -0.5497946479
 H         -2.0463660827       -0.1049603456       -1.6368003380
 H         -2.5764631315       -0.9552083558       -0.1840168276
 H         -2.6238080795        0.8077026943       -0.2426096966
 C          0.0526299306        1.2720521714       -0.4961669205
 O          1.3556527516        1.4397863996       -0.0066906924
 H          1.8416249904        0.6222683891       -0.1979677836
 H          0.0527967489        1.2652238120       -1.5975457505
 H         -0.5095077678        2.1481698118       -0.1607550892
 C          0.1300084877       -1.2478701287       -0.5016679520
 O          1.4630523683       -1.3329070305       -0.0467119141
 H          1.4504534697       -1.4247946810        0.9129322159
 H          0.2000443761       -1.2132029982       -1.5922957221
 H         -0.4225336229       -2.1568749782       -0.2246075516
  19
        -24.95265249
 C         -0.6421183808        0.0052198487       -0.0104871970
 C         -2.0551077883       -0.0349708958        0.5701300178
 H         -2.5861661627       -0.9243611046        0.2407695736
 H         -2.0175109955       -0.0463062354        1.6643506365
 H         -2.6098782870        0.8443305630        0.2624096792
 C         -0.7025355063        0.0472232269       -1.5409434883
 H         -1.1283315367       -0.8761823060       -1.9361528851
 H         -1.3274767083        0.8842937432       -1.8468471124
 H          0.2955905737        0.1984533084       -1.9478898246
 C          0.0996365356        1.2549048012        0.5157586346
 O          1.3972085437        1.4010919459        0.0090009720
 H          1.8314313950        0.5427152402        0.1153225769
 H         -0.4542853773        2.1476648122        0.2103436516
 H          0.1204844546        1.2284641361        1.6165018207
 C          0.0851461493       -1.2737193221        0.4571895171
 O          1.4421315792       -1.3380993647        0.0530392378
 H          1.4714112291       -1.5210840164       -0.9070416203
 H         -0.4603186219       -2.1597496523        0.0939693200
 H          0.1058222297       -1.3021859476        1.5489739133
  19
        -24.95098013
 C         -0.6116977664       -0.0254447212       -0.0014819283
 C         -1.4865866584       -0.8145781051        0.9747486746
 H         -2.1385894256       -1.4962711917        0.4324831426
 H         -0.8816566312       -1.3937750252        1.6711978393
 H         -2.1065566735       -0.1363789327        1.5563471179
 C         -1.4878206555        0.7182340267       -1.0098226140
 H         -0.8776178152        1.4015632373       -1.5951978413
 H         -1.9778540692        0.0186790532       -1.6836948364
 H         -2.2510817704        1.2949043177       -0.4931314863
 C          0.2395637683        0.9922691515        0.7920479416
 O          1.2495490334        1.5946676951        0.0282679990
 H          1.8838649718        0.9059202451       -0.2062098055
 H         -0.4022387989        1.8056372113        1.1393063223
 H          0.6723693700        0.4977911308        1.6738348795
 C          0.3195112085       -0.9808626882       -0.7792016007
 O          1.4316503506       -1.4268758943       -0.0361763157
 H          1.1160315470       -1.9515267462        0.7071062999
 H          0.7399005924       -0.4607783610       -1.6436299189
 H         -0.2652337157       -1.8338807209       -1.1503320934
  19
        -24.95057459
 C         -0.6322773928       -0.0107210703       -0.0108235429
 C         -2.0617472315       -0.0469523905        0.5328396629
 H         -2.0616704906       -0.0686674591        1.6206555109
 H         -2.6078962228        0.8344355937        0.2076405955
 H         -2.5853773606       -0.9287712975        0.1703693263
 C         -0.6523368942        0.0729484359       -1.5371209291
 H         -1.1851239723       -0.7773376393       -1.9570444713
 H         -1.1460737386        0.9880716382       -1.8534387833
 H          0.3624735901        0.0774341207       -1.9245569004
 C          0.0922165213        1.2190536269        0.5739383200
 O          1.3522095790        1.4640269447        0.0142855393
 H          1.8125601823        0.6138238318       -0.0295740712
 H         -0.5027838869        2.1167764657        0.3824519231
 H          0.1759361346        1.0929411156        1.6667037333
 C          0.0820413382       -1.2998593808        0.4324855915
 O          1.4264253016       -1.3060929686       -0.0122319661
 H          1.8355205768       -2.1393766642        0.2387542490
 H         -0.4550244474       -2.1648198311        0.0189017544
 H          0.0509273807       -1.3706321832        1.5299877356
  19
        -24.94948218
 C         -0.0045659960       -0.3952728012        0.0104360439
 C         -0.6371995812       -1.6364515253       -0.6256078345
 H         -0.6925486144       -1.5306815929       -1.7074706743
 H         -0.0424245229       -2.5189366437       -0.4002545684
 H         -1.6394651568       -1.8028713192       -0.2355950175
 C         -0.0534834832       -0.5188787507        1.5355290125
 H          0.4565054632       -1.4222021840        1.8646036218
 H          0.4079120467        0.3433370333        2.0132972178
 H         -1.0879159579       -0.5596946172        1.8676988778
 C          1.4537508785       -0.2893094084       -0.4792415222
 O          2.1246236691        0.8686620862       -0.0552639278
 H          2.1567723154        0.8691127237        0.9079523971
 H          2.0026967597       -1.1890551130       -0.1629760889
 H          1.4707132702       -0.2463968215       -1.5713589666
 C         -0.7569795024        0.8780417768       -0.4275789564
 O         -2.0933033183        0.9271560925        0.0040642446
 H         -2.5756432627        0.2056613785       -0.4138085659
 H         -0.6986163309        0.9707501920       -1.5216144949
 H         -0.2733063338        1.7534997497        0.0109543668
  19
        -24.94939980
 C         -0.0029817353       -0.3916648171       -0.0020554468
 C         -0.0121637287       -0.4495585231       -1.5355161356
 H          0.2545441387        0.5138023404       -1.9699044271
 H          0.6936993545       -1.1996079964       -1.8888427714
 H         -0.9990625220       -0.7291786806       -1.8986696555
 C         -0.6294071439       -1.6667268084        0.5626487801
 H         -0.5128686569       -1.7019219198        1.6430163249
 H         -1.6920195717       -1.6851799049        0.3332101831
 H         -0.1607224559       -2.5497603832        0.1341315338
 C          1.4447880417       -0.2703635804        0.5127810657
 O          2.1275068952        0.8659308835        0.0450762163
 H          2.2132242532        0.7992511177       -0.9123362102
 H          1.4391479065       -0.1750680590        1.6011200939
 H          1.9961392940       -1.1853748028        0.2505722776
 C         -0.7952835763        0.8368270673        0.4900412923
 O         -2.1302551425        0.8684305377        0.0502742435
 H         -2.1349792668        0.9507233706       -0.9093302429
 H         -0.2629376791        1.7501820113        0.1901424150
 H         -0.8495497063        0.8173062097        1.5808227049
  19
        -24.94929150
 C         -0.0000181771        0.0567863969        0.0001499805
 C         -0.0097357964        0.9419434727       -1.2501593016
 H          0.9697714162        1.3970997790       -1.3777791537
 H         -0.2247303673        0.3501836718       -2.1384769298
 H         -0.7470332710        1.7376283471       -1.1629633311
 C          0.0097168611        0.9303002684        1.2586227947
 H         -0.9698133890        1.3841807062        1.3904973021
 H          0.2247822720        0.3303207233        2.1413995581
 H          0.7469668969        1.7268073694        1.1787426687
 C         -1.2462232085       -0.8501578961        0.0290602480
 O         -2.4575953153       -0.1404162070        0.0352748703
 H         -2.5035367642        0.3865776530       -0.7703130373
 H         -1.2103247109       -1.5446494365       -0.8237422843
 H         -1.2517552898       -1.4406666450        0.9486488859
 C          1.2462290717       -0.8497934893       -0.0371430136
 O          2.4576180069       -0.1400590069       -0.0361263333
 H          2.5035281239        0.3787944829        0.7747180577
 H          1.2520538951       -1.4313762153       -0.9623804264
 H          1.2101033721       -1.5525368684        0.8088404393
  19
        -24.94886793
 C         -0.0039867905       -0.3803364193       -0.0128188796
 C         -0.6697834814       -1.6013940466        0.6293470646
 H         -0.0476072521       -2.4821578376        0.4897081877
 H         -0.8102522513       -1.4513242428        1.6990214841
 H         -1.6351177816       -1.8011508275        0.1684312753
 C          0.0214252494       -0.5290331947       -1.5341600791
 H          0.3814337587       -1.5156194259       -1.8150137657
 H         -0.9775659205       -0.3867450953       -1.9392892196
 H          0.6843060700        0.2162673033       -1.9669389417
 C         -0.7786397495        0.9012683926        0.3632589659
 O         -2.1319935995        0.8821470523       -0.0102972041
 H         -2.5635897301        0.1458647842        0.4365639585
 H         -0.6845859394        1.0792238762        1.4473051953
 H         -0.3585859789        1.7586593204       -0.1696812271
 C          1.4380240996       -0.2745621686        0.5256646000
 O          2.1788449704        0.7971690090        0.0007621563
 H          1.7781657710        1.6263683203        0.2810266334
 H          1.9927076889       -1.1708266100        0.2374629231
 H          1.4130864596       -0.2239723247        1.6248758398
  19
        -24.94885671
 C         -0.6378317684       -0.0093468766        0.0051768911
 C         -2.0294359006       -0.0677537352       -0.6264687229
 H         -1.9604961133       -0.1858850937       -1.7060393578
 H         -2.5919958967       -0.9066904783       -0.2231804897
 H         -2.5770811129        0.8472938017       -0.4160277567
 C         -0.7565891671        0.3064370565        1.4976767605
 H          0.2065956659        0.2023559756        1.9906462199
 H         -1.1068973804        1.3256985020        1.6402067743
 H         -1.4596752832       -0.3759216527        1.9696413071
 C          0.0448051190       -1.3838516825       -0.1850963635
 O          1.4417126653       -1.3669041549        0.0386156587
 H          1.8846959652       -1.0961398206       -0.7725400444
 H         -0.3644691594       -2.0910972754        0.5415915956
 H         -0.1719598357       -1.7646785936       -1.1904423608
 C          0.1859528818        1.0887491664       -0.6969460666
 O          1.3569340895        1.4563791084       -0.0143254433
 H          1.7516712197        0.6502095992        0.3478862768
 H         -0.4125818331        2.0006538534       -0.7774269658
 H          0.4281896198        0.7576010369       -1.7224783328
  19
        -24.94844456
 C          0.6125699590        0.0247506941       -0.0009427676
 C          1.4556312639        0.8235120758        0.9929818549
 H          0.8123016280        1.4394791410        1.6163953641
 H          2.0218802066        0.1524175503        1.6342245856
 H          2.1538951307        1.4694601101        0.4651257470
 C          1.5092548346       -0.7132655529       -0.9953892963
 H          2.2651694984       -1.2848110301       -0.4630225551
 H          0.9142278999       -1.4007233472       -1.5918806581
 H          2.0091158423       -0.0115683968       -1.6600772146
 C         -0.2436501317       -0.9958696290        0.7811019997
 O         -1.2545975453       -1.5904655394        0.0085075470
 H         -1.9073007688       -0.9049023935       -0.1738372938
 H          0.3957790504       -1.8134475749        1.1224336204
 H         -0.6766293792       -0.4994208859        1.6581192192
 C         -0.3049807009        0.9808526829       -0.7848986687
 O         -1.3805521189        1.4011859017        0.0344315193
 H         -1.8467832917        2.1173603062       -0.4065747411
 H         -0.6911013935        0.4674053571       -1.6778838700
 H          0.2857227475        1.8435875580       -1.1194684267
  19
        -24.94836744
 C         -0.0000198295       -0.5013474795        0.0000114398
 C         -0.7931429491       -1.3871438814       -0.9653519889
 H         -1.5725347690       -1.9297557108       -0.4326025081
 H         -1.2485031292       -0.7933604029       -1.7554853299
 H         -0.1336316288       -2.1141947020       -1.4338264875
 C          0.7932649406       -1.3868985476        0.9654271914
 H          1.5727288609       -1.9294182582        0.4326800824
 H          1.2485150003       -0.7929580061        1.7555155005
 H          0.1338273108       -2.1139918171        1.4339099325
 C          0.9487766003        0.3984191194       -0.8197317516
 O          1.8478827399        1.1435254311       -0.0399097427
 H          2.4262208300        0.5337890921        0.4310074684
 H          1.4929986406       -0.2185317216       -1.5507160205
 H          0.3535763301        1.1377572683       -1.3608309129
 C         -0.9489164500        0.3983450415        0.8197381481
 O         -1.8478565301        1.1435674399        0.0398424767
 H         -2.4261121798        0.5339192589       -0.4312914423
 H         -0.3538037003        1.1376099326        1.3610695670
 H         -1.4932484999       -0.2187385574        1.5505291991
  19
        -24.94816967
 C          0.0000803894        0.5396012495       -0.0000343038
 C         -0.7933763280        1.4117300516        0.9735250573
 H         -1.4106963542        2.1168677833        0.4226785596
 H         -1.4463097414        0.7963881970        1.5882319606
 H         -0.1237611496        1.9696087672        1.6235114583
 C          0.7938064824        1.4115237069       -0.9735734779
 H          1.4472830598        0.7960620524       -1.5875881406
 H          0.1243363087        1.9688057670       -1.6242135164
 H          1.4105760225        2.1171883248       -0.4227834294
 C          0.9826109109       -0.3369704011        0.8052100283
 O          1.8021769723       -1.1683469394        0.0209980987
 H          1.2486742206       -1.7412038297       -0.5212178073
 H          1.6736634540        0.3106164789        1.3497764260
 H          0.4294021383       -0.9322058635        1.5498087192
 C         -0.9825889932       -0.3369208103       -0.8051998914
 O         -1.8026371656       -1.1678071864       -0.0209840011
 H         -1.2494744845       -1.7402275835        0.5220836003
 H         -0.4294292976       -0.9325385265       -1.5495473324
 H         -1.6733043363        0.3107417757       -1.3500992679
  19
        -24.94796194
 C         -0.0038482036       -0.3875107834       -0.0033593909
 C         -0.0510162752       -0.4643821377       -1.5316631733
 H         -1.0832298822       -0.5706274180       -1.8522011248
 H          0.3460108783        0.4428750311       -1.9840805125
 H          0.5192033580       -1.3196472905       -1.8890580193
 C         -0.6470282293       -1.6396311957        0.5928833048
 H         -1.6973020319       -1.6710577359        0.3176416435
 H         -0.1572415282       -2.5356365989        0.2191332754
 H         -0.5713016926       -1.6303112204        1.6778977414
 C          1.4530766715       -0.2899521646        0.4895090897
 O          2.1385881308        0.8535971537        0.0436283901
 H          2.1782061538        0.8260823223       -0.9189593582
 H          1.4694298676       -0.2270551937        1.5805200083
 H          1.9911938989       -1.2011738435        0.1901340426
 C         -0.7657003906        0.8596582065        0.4699112140
 O         -2.0920989450        0.8183116383       -0.0128666765
 H         -2.5538527022        1.6042990801        0.2929755663
 H         -0.2480502524        1.7566288697        0.1027233206
 H         -0.7580450052        0.8877823195        1.5690263835
  19
        -24.94787663
 C         -0.0011809792       -0.3986598503       -0.0029555885
 C          0.0170694606       -0.4677992585       -1.5323178585
 H          0.4429416396        0.4451537824       -1.9412316475
 H          0.6267627413       -1.3068799075       -1.8597884596
 H         -0.9873336794       -0.6097363690       -1.9259975685
 C         -0.6519225079       -1.6567497216        0.5718673902
 H         -1.7069196980       -1.6713274723        0.3105790003
 H         -0.1784341072       -2.5524571307        0.1764140291
 H         -0.5695093178       -1.6696036228        1.6563306901
 C          1.4405201607       -0.2852513695        0.5141698314
 O          2.0505867096        0.8693373617       -0.0221042873
 H          2.9522518596        0.9254334921        0.3083593326
 H          1.4288834609       -0.2345685008        1.6127458015
 H          1.9989619615       -1.1851325887        0.2179784903
 C         -0.7792280403        0.8475394784        0.4688584031
 O         -2.1206234404        0.8748829676        0.0492412334
 H         -2.1338492207        0.9368144887       -0.9118187965
 H         -0.2453105112        1.7446730093        0.1307181241
 H         -0.8176794702        0.8578967671        1.5611045631
  19
        -24.94780540
 C          0.0000048548        0.0593743179       -0.0313453738
 C          0.0001987372        1.4712384792        0.5670831148
 H          0.8749110150        2.0288956486        0.2372955927
 H         -0.8740053758        2.0293398105        0.2367071731
 H         -0.0001708825        1.4316081338        1.6560256580
 C         -0.0003027533        0.1387413681       -1.5578476343
 H         -0.0009454323       -0.8607839149       -1.9848372873
 H         -0.8864800246        0.6619257769       -1.9080614402
 H          0.8863306161        0.6609462480       -1.9083594014
 C          1.2432735645       -0.7171380999        0.4496550477
 O          2.4640703546       -0.1616798847        0.0360476502
 H          2.5478068243        0.7188760932        0.4177372102
 H          1.2137557929       -0.8065036781        1.5466785434
 H          1.2282342463       -1.7242949606        0.0267168675
 C         -1.2432357546       -0.7168668741        0.4501667711
 O         -2.4640154652       -0.1617489640        0.0360889562
 H         -2.5477352359        0.7191623181        0.4169822413
 H         -1.2137288634       -0.8053237550        1.5472624296
 H         -1.2281128780       -1.7243622689        0.0280457275
  19
        -24.94723096
 C         -0.0024894156       -0.3978831633        0.0119239262
 C         -0.6648129259       -1.6291700054       -0.6136213755
 H         -1.6455168438       -1.7998832642       -0.1746425050
 H         -0.7745942769       -1.5080915223       -1.6903520533
 H         -0.0608203059       -2.5152321650       -0.4306041766
 C         -0.0050811396       -0.5137061318        1.5361644706
 H          0.3877164155       -1.4785699488        1.8490656343
 H          0.6114697870        0.2734995888        1.9604946676
 H         -1.0185329028       -0.4029873956        1.9132822539
 C          1.4427087281       -0.3003925082       -0.5003186318
 O          2.0526523447        0.8656386354        0.0063255312
 H          2.9630194098        0.8996633728       -0.3029416377
 H          1.9965275817       -1.1937411513       -0.1766180564
 H          1.4378040021       -0.2804304989       -1.6008883944
 C         -0.7491860956        0.8859762972       -0.4042152819
 O         -2.0933452536        0.9211762150        0.0023524215
 H         -2.5582458098        0.1897825633       -0.4184024383
 H         -0.6743125786        1.0092669088       -1.4953954691
 H         -0.2704676692        1.7423793807        0.0725398373
  19
        -24.94710124
 C         -0.0022690662       -0.5173111664        0.0012524983
 C          0.8065645555       -1.4245591128       -0.9300933888
 H          1.5522026555       -1.9784990156       -0.3626989351
 H          0.1503359946       -2.1408573156       -1.4188914935
 H          1.3068865649       -0.8478254739       -1.7063223636
 C         -0.8275522054       -1.3669321506        0.9667918484
 H         -1.5040093052       -2.0136121870        0.4131141929
 H         -0.1778825846       -1.9860396367        1.5810352292
 H         -1.4172626251       -0.7226841884        1.6118610399
 C          0.9353795279        0.3960869487        0.8174995856
 O          1.8070345699        1.1720451366        0.0319568697
 H          2.4050764320        0.5794158728       -0.4361872366
 H          0.3276700187        1.1101917217        1.3760596644
 H          1.5048546414       -0.2155151466        1.5320608267
 C         -0.9339940313        0.3692055334       -0.8401315199
 O         -1.7938971302        1.0943940659        0.0120746093
 H         -2.2566745422        1.7571656719       -0.5085540665
 H         -1.5213849657       -0.2619921729       -1.5243371566
 H         -0.3177197492        1.0534502102       -1.4386498087
  19
        -24.94652229
 C          0.0009895009       -0.0464547560        0.0244068956
 C         -0.0150580305       -0.3999607106        1.5114396975
 H         -0.8783266012       -1.0204302059        1.7332329901
 H          0.8927197431       -0.9357290899        1.7769089738
 H         -0.0689953824        0.5032517125        2.1147526631
 C         -0.0154524007       -1.3256241456       -0.8179481871
 H         -0.9800302542       -1.8120988962       -0.7044110119
 H          0.1345518182       -1.0962944676       -1.8720783931
 H          0.7555770547       -2.0197831285       -0.4899102908
 C         -1.2367990773        0.7955971687       -0.3211651960
 O         -2.4039210877        0.0591800307       -0.0316334944
 H         -3.1712524582        0.6086863819       -0.2162016624
 H         -1.2148193197        1.7270954959        0.2626647423
 H         -1.2094512517        1.0622830701       -1.3888544457
 C          1.2538661171        0.7927777805       -0.2964258661
 O          2.4616318018        0.1332020298       -0.0217792006
 H          2.4846450864       -0.6808338930       -0.5371723820
 H          1.2668946633        1.6914850379        0.3253413306
 H          1.2207985193        1.1072015256       -1.3517478943
  19
        -24.94626618
 C         -0.0038464392       -0.3696146611        0.0064641655
 C         -0.6809210819       -1.5892811572       -0.6190625666
 H         -0.6772114289       -1.5162153482       -1.7047220821
 H         -0.1630773909       -2.5004621978       -0.3311904672
 H         -1.7105439368       -1.6443459393       -0.2785388700
 C          0.0147847275       -0.4958059440        1.5297816385
 H          0.4418311130       -1.4510932480        1.8232630416
 H          0.6178890711        0.2982178350        1.9642103514
 H         -0.9983053224       -0.4266647729        1.9153919208
 C          1.4401171335       -0.2774753836       -0.5267059345
 O          2.1988147045        0.7782089779        0.0102478530
 H          1.8087498627        1.6157041642       -0.2595996643
 H          1.9788197639       -1.1851682111       -0.2454486303
 H          1.4209497277       -0.2149614633       -1.6252152564
 C         -0.7838916633        0.8963049015       -0.3909227810
 O         -2.1289548405        0.7668013748        0.0124131897
 H         -2.6047796433        1.5683145781       -0.2246759086
 H         -0.7254429407        1.0330760030       -1.4826283147
 H         -0.3338899856        1.7759380109        0.0947412903
  19
        -24.94559998
 C          0.0000192462       -0.5344722126        0.0000213022
 C          0.8337012166       -1.4065664438       -0.9381864965
 H          1.4661293372       -2.0753274623       -0.3595303298
 H          0.1894070989       -2.0044896061       -1.5784044224
 H          1.4680047613       -0.7807226614       -1.5594776474
 C         -0.8337132729       -1.4064950437        0.9382339895
 H         -1.4661359186       -2.0753059721        0.3596216025
 H         -0.1894215078       -2.0043634451        1.5784974974
 H         -1.4680260991       -0.7806283409        1.5594964100
 C          0.9281820967        0.3620705752        0.8332301656
 O          1.7444500239        1.1342690825       -0.0249607364
 H          2.2578419587        1.7447643706        0.5121204920
 H          0.3090791225        1.0112118809        1.4645529389
 H          1.5526050473       -0.2691851757        1.4822971570
 C         -0.9282184497        0.3619793789       -0.8332239751
 O         -1.7443997887        1.1343221862        0.0249007569
 H         -2.2581565648        1.7444317402       -0.5122738986
 H         -1.5526709302       -0.2693308602       -1.4822078885
 H         -0.3091062068        1.0110182856       -1.4646333913
  19
        -24.94552591
 C         -0.0025282240       -0.3926653718       -0.0054187867
 C         -0.0159420500       -0.5061663393       -1.5298247046
 H         -1.0399064458       -0.4553492164       -1.8877774228
 H          0.5541072152        0.3108480459       -1.9638022023
 H          0.4244427974       -1.4492481763       -1.8448351717
 C         -0.6818518041       -1.6100630764        0.6210170079
 H         -0.6544217149       -1.5505993870        1.7070972011
 H         -1.7191360907       -1.6421938202        0.3018309724
 H         -0.1867057455       -2.5270386500        0.3103442291
 C          1.4467395148       -0.3051244506        0.4958913758
 O          2.0654275356        0.8568680701       -0.0151021308
 H          2.9880348695        0.8611771092        0.2579357437
 H          1.4524673076       -0.2829790950        1.5962848419
 H          1.9882978989       -1.2034569217        0.1681527410
 C         -0.7433778229        0.8854990068        0.4158698599
 O         -2.0904218602        0.8145808372       -0.0030597168
 H         -2.5166237523        1.6523028470        0.1995912660
 H         -0.2383644913        1.7468181222       -0.0375292044
 H         -0.6916546976        0.9890463082        1.5103860955
