  26
        -33.42296982
 C         -0.0000429899       -0.8585281613       -0.6839860782
 O         -0.0001344211       -2.2357667718       -0.4734640229
 H         -0.0007688968       -2.4094098778        0.4736650209
 C          1.1069795133       -0.0000037741        0.0002587564
 C          1.9829874140        0.7597020383       -0.9880840732
 H          2.5342175549        1.5451422230       -0.4745120980
 H          2.6933859391        0.0775964295       -1.4494477394
 H          1.3896249878        1.2123112168       -1.7808938430
 C          1.9807311523       -0.7608042661        0.9897709751
 H          1.3857291335       -1.2128517510        1.7816683676
 H          2.5319035757       -1.5467524690        0.4769064284
 H          2.6911850291       -0.0795000921        1.4522359735
 C          0.0000616673        0.8596100818        0.6833643948
 O          0.0001471578        2.2364948237        0.4704909919
 H         -0.0003166712        2.4085701935       -0.4769182035
 H          0.0000706222        0.7523458085        1.7712609855
 C         -1.1069495925        0.0001244675        0.0002702652
 C         -1.9828827147        0.7599113363       -0.9880885465
 H         -1.3895197198        1.2120782487       -1.7811529840
 H         -2.5337632808        1.5456696757       -0.4746277196
 H         -2.6936008665        0.0779153662       -1.4491275861
 C         -1.9808134196       -0.7605930964        0.9897712139
 H         -1.3860097439       -1.2115802693        1.7824251549
 H         -2.5310769123       -1.5473184486        0.4771134177
 H         -2.6920947316       -0.0794861073        1.4512495848
 H         -0.0000146607       -0.7493590896       -1.7717013165
  26
        -33.42097807
 C         -0.0108517309       -0.9022514225       -0.6703561050
 O         -0.0770474208       -2.2280343113       -0.2249691764
 H          0.7324711978       -2.6786538000       -0.4869685043
 C          1.1063108967       -0.0140785882       -0.0423313283
 C          1.8696661967        0.8105415379       -1.0713934949
 H          1.1991925948        1.2644641618       -1.7989894005
 H          2.4296274189        1.5997345736       -0.5735066190
 H          2.5709408092        0.1782208646       -1.6128921884
 C          2.0770820560       -0.7467162644        0.8740141394
 H          2.6364416789       -0.0250495540        1.4647651902
 H          1.5364532994       -1.4046771107        1.5504380078
 H          2.7848564022       -1.3411951245        0.2970594470
 C          0.0089024619        0.7812610901        0.7243013120
 O          0.0241298142        2.1737570432        0.6744235587
 H         -0.0100694267        2.4545938192       -0.2461429091
 H          0.0089192551        0.5375280319        1.7888613129
 C         -1.1027617303        0.0040155524       -0.0398003771
 C         -1.8535219908        0.8399502169       -1.0689916983
 H         -2.5509746464        0.2095215572       -1.6158622160
 H         -1.1777699367        1.2958417252       -1.7911168056
 H         -2.4151588536        1.6268215512       -0.5693809658
 C         -2.0870881205       -0.7141886150        0.8707288327
 H         -1.5576372372       -1.3523618034        1.5715838900
 H         -2.7560036649       -1.3389977596        0.2842696448
 H         -2.6735043895        0.0153478626        1.4246477314
 H         -0.0099837563       -0.8770773139       -1.7706962573
  26
        -33.41895081
 C         -0.0219303440       -0.8347973778        0.7064414518
 O         -0.1055279292       -2.2019222083        0.4109189257
 H          0.7019462787       -2.6275908407        0.7165693979
 C         -1.1039049197        0.0209263945       -0.0013523721
 C         -1.9538551776        0.8318869008        0.9674394345
 H         -2.5037900911        0.1611326350        1.6234149258
 H         -1.3273622557        1.4808096201        1.5751828533
 H         -2.6714972244        1.4468546421        0.4264593118
 C         -1.9835571817       -0.7598642948       -0.9662226609
 H         -2.5810126582       -0.0762743941       -1.5670373036
 H         -1.3762778434       -1.3728415992       -1.6255936083
 H         -2.6478323250       -1.4179406704       -0.4125795097
 C          0.0219473445        0.8350298879       -0.7062504131
 O          0.1055682397        2.2020376184       -0.4102558170
 H         -0.7027917482        2.6274963808       -0.7138984893
 H          0.0188325652        0.6847863247       -1.7954528227
 C          1.1039476501       -0.0209446844        0.0012454407
 C          1.9840827421        0.7597514848        0.9657512595
 H          2.6476094855        1.4184571805        0.4119105584
 H          2.5822814186        0.0760560042        1.5657304423
 H          1.3770945438        1.3721858892        1.6258981970
 C          1.9533271680       -0.8321010907       -0.9678976858
 H          2.6720381649       -1.4461463821       -0.4272439431
 H          2.5018893416       -0.1613185149       -1.6251074671
 H          1.3264929261       -1.4820054700       -1.5742817247
 H         -0.0189430847       -0.6841488446        1.7955792413
  26
        -33.41849442
 C          0.0006869798       -0.8365727381        0.7056537022
 O          0.0542447637       -2.2039881322        0.4056910654
 H         -0.7426804070       -2.6227645281        0.7466692960
 C         -1.1083599130        0.0000919621        0.0004000982
 C         -1.9700166833        0.7969836560        0.9708495502
 H         -2.7041241812        1.3942990524        0.4319771847
 H         -2.5036460977        0.1238778923        1.6395198001
 H         -1.3517166447        1.4630450208        1.5678106077
 C         -1.9732901578       -0.7951887044       -0.9684704824
 H         -2.5069403933       -0.1210568150       -1.6360927024
 H         -1.3572777490       -1.4622682103       -1.5666928470
 H         -2.7075116250       -1.3911906117       -0.4282761325
 C          0.0009467702        0.8349857158       -0.7064918908
 O          0.0549712033        2.2031198977       -0.4099197206
 H         -0.7415154328        2.6214218554       -0.7524736802
 H         -0.0008068113        0.6836081134       -1.7952720126
 C          1.1002471405       -0.0002328171        0.0004087176
 C          1.9649984719        0.7964491384        0.9652778628
 H          2.5733676898        0.1186665860        1.5597026216
 H          1.3482979867        1.3965216089        1.6280572516
 H          2.6156422739        1.4673283591        0.4110362779
 C          1.9678596599       -0.7957083273       -0.9628690276
 H          2.5758604293       -0.1170485194       -1.5566624903
 H          1.3531772641       -1.3971596070       -1.6262671403
 H          2.6189359339       -1.4651728743       -0.4074357814
 H         -0.0010306407       -0.6879524279        1.7948186781
