  18
        -36.44213446
 C         -0.6953435472       -1.1749655319        0.2664270921
 C          0.6855758951       -1.1762478225        0.2527935097
 C          1.3918150584       -0.0046299467       -0.0094245386
 C          0.6954055633        1.1745407350       -0.2672969490
 C         -0.6855014622        1.1757884801       -0.2537423930
 C         -1.3917861332        0.0042393012        0.0087914774
 C         -2.8861074840        0.0889472621        0.0239109875
 O         -3.4699463805        1.1116181214        0.2496123204
 O         -3.5533607231       -1.0453095462       -0.2397703594
 H         -2.9700697279       -1.7850700979       -0.4559168089
 H         -1.2427145779        2.0794072580       -0.4480026121
 H          1.2164676238        2.0908367047       -0.5110932914
 C          2.8861637524       -0.0887672501       -0.0238601776
 O          3.4706863853       -1.1104178024       -0.2522997623
 O          3.5525316264        1.0450799490        0.2439827440
 H          2.9685501858        1.7837146892        0.4621360968
 H          1.2427548592       -2.0799148500        0.4469178205
 H         -1.2162154019       -2.0913366858        0.5103641345
  18
        -36.44191467
 C          0.6929181496        1.2062351107        0.0304952116
 C         -0.6879029904        1.2003771110        0.0395737309
 C         -1.3927059107       -0.0012550089        0.0178080200
 C         -0.6928651109       -1.2064336390        0.0299778897
 C          0.6879610291       -1.2006123193        0.0387956603
 C          1.3926986793        0.0010393105        0.0175993713
 C          2.8874612393       -0.0809856398        0.0204331819
 O          3.4772712789       -1.0525644602        0.4023873317
 O          3.5496309198        0.9902179603       -0.4434432872
 H          2.9631326401        1.6887436006       -0.7631132671
 H          1.2483472588       -2.1227232895        0.0617999301
 H         -1.2093478812       -2.1563170089        0.0700983389
 C         -2.8874353306        0.0810568915        0.0204023494
 O         -3.4770394306        1.0531577814        0.4015341196
 O         -3.5499409007       -0.9902837581       -0.4427551715
 H         -2.9636339207       -1.6896874081       -0.7605987816
 H         -1.2482860502        2.1224647411        0.0633857512
 H          1.2094819598        2.1560355905        0.0713507723
  18
        -36.44111214
 C          0.6896394585        1.2138238298       -0.0154977424
 C         -0.6895858215        1.2138356593        0.0141904882
 C         -1.3911353610        0.0097397590        0.0096998308
 C         -0.6915769806       -1.1944325607       -0.0010690572
 C          0.6914918194       -1.1944615002        0.0012589422
 C          1.3911164390        0.0096839401       -0.0100473303
 C          2.8860074289        0.0710235806       -0.0466125310
 O          3.4830057184        0.9799669198       -0.5494530330
 O          3.5386123795       -0.9547018381        0.5263475507
 H          2.9452177300       -1.5896479675        0.9487465321
 H          1.2129922898       -2.1423464400       -0.0249024562
 H         -1.2131774402       -2.1422734309        0.0252198648
 C         -2.8859396710        0.0709780085        0.0469941912
 O         -3.4827838112        0.9794650993        0.5510095097
 O         -3.5388121409       -0.9540811728       -0.5269239166
 H         -2.9457250508       -1.5886295734       -0.9503468156
 H         -1.2483806718        2.1366690991        0.0336162766
 H          1.2485152981        2.1365820800       -0.0349832343
  18
        -36.44078021
 C          0.6916724627        1.1631872091       -0.2881929694
 C         -0.6915084226        1.1632890058       -0.2881385818
 C         -1.3922831175       -0.0089738872       -0.0146489736
 C         -0.6896450820       -1.1885867433        0.2259619172
 C          0.6895946027       -1.1887094622        0.2258838890
 C          1.3923109052       -0.0091634229       -0.0147421036
 C          2.8875165529       -0.0781692783       -0.0083740811
 O          3.4877379869       -1.0926867360       -0.2230312469
 O          3.5390077057        1.0649789999        0.2658790550
 H          2.9447599498        1.7984864411        0.4713054297
 H          1.2492829614       -2.0931705785        0.4075103894
 H         -1.2494500185       -2.0929436098        0.4077584528
 C         -2.8875029148       -0.0782016063       -0.0081850341
 O         -3.4874875640       -1.0934008811       -0.2203927382
 O         -3.5393493048        1.0654163891        0.2632761380
 H         -2.9453827908        1.7996435344        0.4669092698
 H         -1.2102108506        2.0787408641       -0.5416332646
 H          1.2106011239        2.0785052477       -0.5416864180
  18
        -36.44045808
 C         -0.6826582942       -1.1988005236        0.1622492009
 C          0.7006869073       -1.1899747028        0.1593909816
 C          1.3962364090        0.0074877646        0.0131912817
 C          0.6871818168        1.2001774485       -0.1154016842
 C         -0.6914052652        1.1880883145       -0.1273527897
 C         -1.3932329669       -0.0105011229        0.0071468368
 C         -2.8890054252        0.0821939070       -0.0164133247
 O         -3.4607540817        1.1309790238       -0.1263738735
 O         -3.5831535001       -1.0613458634        0.0849062149
 H         -3.0250561684       -1.8447868652        0.1683010514
 H         -1.2582586425        2.1000396310       -0.2354453665
 H          1.2396467912        2.1224124463       -0.2072331325
 C          2.8911466725        0.0792608343        0.0260426996
 O          3.4880248408        1.0522299221        0.3896248696
 O          3.5445920792       -1.0133948820       -0.4051164044
 H          2.9514027402       -1.7065342490       -0.7232517395
 H          1.2261629980       -2.1239303511        0.3108479129
 H         -1.1804925027       -2.1510764068        0.2937632285
  18
        -36.43996187
 C         -0.6889190907       -1.1868401299       -0.0000074307
 C          0.6889190993       -1.1868401101       -0.0000014711
 C          1.3981411195        0.0147870798        0.0000058592
 C          0.6918528297        1.2153289799        0.0000045798
 C         -0.6918527903        1.2153290201        0.0000058901
 C         -1.3981410905        0.0147871002        0.0000100799
 C         -2.8935682105       -0.0871394396        0.0000637402
 O         -3.4596370407       -1.1446373095       -0.0000496800
 O         -3.5941235604        1.0570316705       -0.0000051092
 H         -3.0407897002        1.8482140804        0.0000259210
 H         -1.1940673602        2.1743974901        0.0000077906
 H          1.1940673998        2.1743974598        0.0000065600
 C          2.8935682895       -0.0871394104        0.0000214187
 O          3.4596368993       -1.1446373905        0.0000171582
 O          3.5941235796        1.0570316795       -0.0000389210
 H          3.0407897598        1.8482140696       -0.0000569906
 H          1.2490915392       -2.1092449502        0.0000056484
 H         -1.2490915608       -2.1092449498        0.0000027991
